This is a mirror of http://www.vim.org/scripts/script.php?script_id=4901

VIM filetype plugin for Ls-Dyna FE solver.

Main plugin features:
- syntax highlighting
- node/element table folding
- keyword library
- curve commands
- many others useful features


